@<TRIPOS>MOLECULE
MOL
  172   171     1     0     0
SMALL
resp


@<TRIPOS>ATOM
      1 C1          0.2710    3.4940    5.7980 c3        1 MOL     -0.432732
      2 C2         -0.1960    3.3980    4.3120 c         1 MOL      0.662493
      3 O1          0.6050    3.5900    3.3750 o         1 MOL     -0.545495
      4 H1          0.7630    2.5640    6.0840 hc        1 MOL      0.111916
      5 H2          0.9690    4.3230    5.9070 hc        1 MOL      0.111916
      6 H3         -0.5940    3.6600    6.4410 hc        1 MOL      0.111916
      7 N1         -1.4440    3.0130    4.0470 n         1 MOL     -0.524914
      8 C3         -2.0800    2.9480    2.7520 c3        1 MOL      0.213942
      9 C4         -2.0790    4.3370    2.0890 c         1 MOL      0.429545
     10 O2         -2.5500    5.3150    2.6950 o         1 MOL     -0.542879
     11 C5         -3.5200    2.3690    2.8950 c3        1 MOL     -0.533288
     12 C6         -4.2120    2.4510    1.5970 c         1 MOL      0.893168
     13 O3         -5.3230    3.0120    1.5760 o         1 MOL     -0.651295
     14 O4         -3.6300    2.0470    0.5420 o         1 MOL     -0.651295
     15 H4         -2.0840    2.8920    4.8230 hn        1 MOL      0.302063
     16 H5         -1.5200    2.2640    2.1020 h1        1 MOL      0.030782
     17 H6         -3.9370    2.9300    3.7310 hc        1 MOL      0.105677
     18 H7         -3.5330    1.3530    3.2730 hc        1 MOL      0.105677
     19 N2         -1.8740    4.3390    0.7480 n         1 MOL     -0.252748
     20 C7         -2.1340    5.4670   -0.1070 c3        1 MOL      0.166468
     21 C8         -3.3260    5.2500   -1.0530 c         1 MOL      0.551346
     22 O5         -3.6700    6.2580   -1.7100 o         1 MOL     -0.606032
     23 C9         -0.9040    5.8070   -0.8640 c3        1 MOL     -0.255445
     24 H8         -1.5760    3.5230    0.2430 hn        1 MOL      0.245367
     25 H9         -2.4700    6.2680    0.5540 h1        1 MOL      0.022614
     26 H10        -0.6250    4.9610   -1.4780 hc        1 MOL      0.064951
     27 H11        -1.0790    6.6150   -1.5830 hc        1 MOL      0.064951
     28 H12        -0.0190    6.0930   -0.3020 hc        1 MOL      0.064951
     29 N3         -3.9450    4.0450   -1.2680 n         1 MOL     -0.400789
     30 C10        -4.8090    3.6430   -2.4670 c3        1 MOL      0.185828
     31 C11        -5.9810    2.6940   -2.0960 c         1 MOL      0.308551
     32 O6         -6.9200    2.5170   -2.9070 o         1 MOL     -0.567364
     33 C12        -3.9710    2.9760   -3.5500 c3        1 MOL     -0.189100
     34 C13        -3.1330    1.7670   -3.1150 c         1 MOL      0.708283
     35 O7         -3.6330    0.8260   -2.4390 o         1 MOL     -0.662405
     36 O8         -1.9440    1.7330   -3.5150 o         1 MOL     -0.662405
     37 H13        -3.6360    3.2920   -0.6830 hn        1 MOL      0.142016
     38 H14        -5.3080    4.5270   -2.8740 h1        1 MOL      0.066747
     39 H15        -3.3800    3.7670   -4.0000 hc        1 MOL      0.036198
     40 H16        -4.6790    2.5590   -4.2700 hc        1 MOL      0.036198
     41 N4         -6.0810    2.0330   -0.9170 n         1 MOL      0.020882
     42 C14        -7.2980    1.3550   -0.4820 c3        1 MOL     -0.154890
     43 C15        -7.3610   -0.1360   -0.9510 c         1 MOL      0.459812
     44 O9         -8.3280   -0.8750   -0.7310 o         1 MOL     -0.617304
     45 H17        -5.4040    2.2320   -0.1810 hn        1 MOL      0.018238
     46 H18        -8.1700    1.8770   -0.8820 h1        1 MOL      0.087475
     47 H19        -7.3620    1.3490    0.6110 h1        1 MOL      0.087475
     48 N5         -6.3670   -0.5640   -1.7200 n         1 MOL     -0.120084
     49 C16        -6.2030   -1.9540   -2.2150 c3        1 MOL     -0.106807
     50 C17        -6.0770   -2.9910   -1.0610 c         1 MOL      0.484105
     51 O10        -5.8150   -4.1710   -1.4200 o         1 MOL     -0.544574
     52 C18        -4.9450   -2.0490   -3.1730 c3        1 MOL     -0.014055
     53 C19        -3.5900   -2.1640   -2.5820 c         1 MOL      0.543085
     54 N6         -2.6490   -2.1850   -3.4690 n         1 MOL     -0.643346
     55 O11        -3.3480   -2.0880   -1.3800 o         1 MOL     -0.627972
     56 H20        -5.5870    0.0170   -1.9750 hn        1 MOL      0.097424
     57 H21        -7.0060   -2.2320   -2.8940 h1        1 MOL      0.114164
     58 H22        -4.9430   -1.2250   -3.8840 hc        1 MOL      0.039234
     59 H23        -5.0600   -2.8490   -3.9060 hc        1 MOL      0.039234
     60 H24        -2.8680   -1.9650   -4.4260 hn        1 MOL      0.336999
     61 H25        -1.6850   -2.0250   -3.2170 hn        1 MOL      0.336999
     62 N7         -6.2800   -2.6670    0.2370 n         1 MOL     -0.230530
     63 C20        -6.3470   -3.7410    1.2700 c3        1 MOL     -0.360202
     64 C21        -5.0290   -4.2790    1.7580 c         1 MOL      0.599126
     65 O12        -4.9470   -5.0820    2.6750 o         1 MOL     -0.565245
     66 H26        -6.4810   -1.7290    0.5320 hn        1 MOL      0.304170
     67 H27        -6.8760   -4.6530    1.0120 h1        1 MOL      0.158108
     68 H28        -6.8260   -3.3230    2.1530 h1        1 MOL      0.158108
     69 N8         -3.8900   -3.7850    1.1560 n         1 MOL     -0.259996
     70 C22        -2.6010   -4.4390    1.1890 c3        1 MOL     -0.281796
     71 C23        -1.4630   -3.4490    1.1360 c         1 MOL      0.559283
     72 O13        -1.5290   -2.3650    0.5580 o         1 MOL     -0.483165
     73 C24        -2.3880   -5.4740    0.1380 c3        1 MOL      0.500606
     74 C25        -3.2080   -6.7610    0.3810 c3        1 MOL     -0.503275
     75 O14        -2.7460   -5.0610   -1.2110 oh        1 MOL     -0.614542
     76 H29        -3.9700   -2.9490    0.5860 hn        1 MOL      0.201367
     77 H30        -2.5130   -4.8110    2.2130 h1        1 MOL      0.104436
     78 H31        -1.3230   -5.7000    0.1080 h1        1 MOL      0.030829
     79 H32        -3.4920   -4.4700   -1.1050 ho        1 MOL      0.414466
     80 H33        -2.6910   -7.5840   -0.0910 hc        1 MOL      0.118933
     81 H34        -3.1340   -7.0190    1.4310 hc        1 MOL      0.118933
     82 H35        -4.2720   -6.6180    0.1850 hc        1 MOL      0.118933
     83 N9         -0.2800   -3.8320    1.7320 n         1 MOL     -0.557459
     84 C26         0.8930   -2.8850    1.8640 c3        1 MOL     -0.116264
     85 C27         1.6550   -2.9970    0.5210 c         1 MOL      0.767436
     86 O15         2.1920   -4.0850    0.2760 o         1 MOL     -0.598660
     87 C28         1.7070   -3.2430    3.1290 c3        1 MOL      0.135431
     88 C29         0.8810   -3.3530    4.4330 c3        1 MOL      0.112724
     89 C30         2.9540   -2.3430    3.3220 c3        1 MOL     -0.279683
     90 C31         1.6520   -3.4100    5.7820 c3        1 MOL     -0.232138
     91 H36        -0.3560   -4.7850    2.0660 hn        1 MOL      0.296064
     92 H37         0.4910   -1.8800    2.0150 h1        1 MOL      0.120077
     93 H38         2.1580   -4.2090    2.9110 hc        1 MOL     -0.025300
     94 H39         0.1530   -4.1610    4.3100 hc        1 MOL     -0.017655
     95 H40         0.3000   -2.4460    4.5670 hc        1 MOL     -0.017655
     96 H41         2.6490   -1.4110    3.8080 hc        1 MOL      0.059591
     97 H42         3.6910   -2.8160    3.9740 hc        1 MOL      0.059591
     98 H43         3.4330   -2.1240    2.3690 hc        1 MOL      0.059591
     99 H44         2.2550   -4.3170    5.7700 hc        1 MOL      0.054433
    100 H45         2.1600   -2.4570    5.8340 hc        1 MOL      0.054433
    101 H46         0.9190   -3.5800    6.5720 hc        1 MOL      0.054433
    102 N10         1.6510   -1.9120   -0.3150 n         1 MOL     -0.432449
    103 C32         2.6150   -1.7750   -1.3670 c3        1 MOL      0.042904
    104 C33         4.0050   -1.3750   -0.8780 c         1 MOL      0.394119
    105 O16         4.2180   -0.7740    0.1800 o         1 MOL     -0.259274
    106 C34         1.9980   -0.8180   -2.4940 c3        1 MOL     -0.321400
    107 C35         0.5240   -1.0890   -2.8280 c         1 MOL      0.775414
    108 O17        -0.3760   -0.6150   -2.0820 o         1 MOL     -0.681477
    109 O18         0.2390   -1.6450   -3.9010 o         1 MOL     -0.681477
    110 H47         0.9870   -1.1820   -0.1210 hn        1 MOL      0.194048
    111 H48         2.6320   -2.7980   -1.7610 h1        1 MOL      0.059089
    112 H49         2.6390   -0.8910   -3.3610 hc        1 MOL      0.089715
    113 H50         1.9610    0.2340   -2.2020 hc        1 MOL      0.089715
    114 N11         4.9950   -1.7070   -1.7110 n         1 MOL     -0.610223
    115 C36         6.4400   -1.3690   -1.4430 c3        1 MOL      0.281259
    116 C37         6.7300    0.0880   -0.9500 c         1 MOL      0.490464
    117 O19         7.3940    0.1690    0.0560 o         1 MOL     -0.511668
    118 C38         7.3620   -1.6550   -2.6300 c3        1 MOL     -0.232509
    119 C39         8.8500   -1.4270   -2.3640 ca        1 MOL      0.022755
    120 C40         9.5520   -2.1590   -1.3940 ca        1 MOL     -0.095141
    121 C41         9.6560   -0.5180   -3.1220 ca        1 MOL     -0.095141
    122 C42        10.9530   -1.9660   -1.2620 ca        1 MOL     -0.131677
    123 C43        11.0250   -0.4510   -3.1230 ca        1 MOL     -0.131677
    124 C44        11.6950   -1.1440   -2.1070 ca        1 MOL     -0.091192
    125 H51         4.7630   -2.1750   -2.5660 hn        1 MOL      0.342052
    126 H52         6.7140   -1.9160   -0.5450 h1        1 MOL      0.059066
    127 H53         7.0010   -1.1050   -3.4920 hc        1 MOL      0.082725
    128 H54         7.2200   -2.7070   -2.8930 hc        1 MOL      0.082725
    129 H55         9.0480   -2.9520   -0.8480 ha        1 MOL      0.090084
    130 H56         9.1330   -0.0140   -3.9220 ha        1 MOL      0.090084
    131 H57        11.6140   -2.5180   -0.6040 ha        1 MOL      0.104452
    132 H58        11.5450   -0.0190   -3.9690 ha        1 MOL      0.104452
    133 H59        12.7670   -1.1500   -2.0030 ha        1 MOL      0.097506
    134 N12         6.1570    1.1470   -1.5380 n         1 MOL     -0.180159
    135 C45         6.2730    2.4960   -0.9800 c3        1 MOL     -0.206201
    136 C46         5.4840    2.8200    0.3230 c         1 MOL      0.356255
    137 O20         5.6300    3.8810    0.9540 o         1 MOL     -0.534955
    138 C47         5.6840    3.3880   -2.0330 c3        1 MOL      0.045597
    139 C48         4.5990    2.5900   -2.7380 c3        1 MOL     -0.005912
    140 C49         5.3140    1.1980   -2.7590 c3        1 MOL     -0.063814
    141 H60         7.3050    2.7660   -0.7710 h1        1 MOL      0.133705
    142 H61         5.2850    4.3460   -1.6980 hc        1 MOL      0.024357
    143 H62         6.3750    3.7620   -2.7840 hc        1 MOL      0.024357
    144 H63         3.6630    2.5750   -2.1750 hc        1 MOL      0.036869
    145 H64         4.4480    2.9710   -3.7500 hc        1 MOL      0.036869
    146 H65         4.5110    0.4550   -2.7970 h1        1 MOL      0.043769
    147 H66         5.9070    1.1050   -3.6750 h1        1 MOL      0.043769
    148 N13         4.5980    1.9330    0.7680 n         1 MOL     -0.011261
    149 C50         3.9570    1.9330    2.0720 c3        1 MOL     -0.151347
    150 C51         4.7240    1.0910    3.0300 c         1 MOL      0.472670
    151 O21         4.5830    1.3600    4.2030 o         1 MOL     -0.575173
    152 C52         2.4770    1.3910    1.9880 c3        1 MOL      0.008789
    153 C53         1.7030    2.1170    0.8820 c3        1 MOL     -0.039340
    154 C54         0.4130    1.3670    0.5440 c         1 MOL      0.745726
    155 O22         0.0980    0.3140    1.1640 o         1 MOL     -0.795830
    156 O23        -0.4590    1.8770   -0.1250 o         1 MOL     -0.795830
    157 H67         4.4070    1.1550    0.1510 hn        1 MOL      0.196294
    158 H68         3.8990    2.9500    2.4540 h1        1 MOL      0.108523
    159 H69         2.0470    1.5390    2.9710 hc        1 MOL      0.070205
    160 H70         2.5510    0.3690    1.6310 hc        1 MOL      0.070205
    161 H71         2.3590    2.2540    0.0230 hc        1 MOL     -0.000287
    162 H72         1.2790    3.0770    1.1820 hc        1 MOL     -0.000287
    163 N14         5.5060    0.1090    2.5940 n         1 MOL     -0.001911
    164 C55         6.4360   -0.4910    3.5050 c3        1 MOL     -0.261564
    165 H73         6.4190   -1.5730    3.3790 h1        1 MOL      0.084858
    166 H74         7.4400   -0.1180    3.2990 h1        1 MOL      0.084858
    167 H75         6.1570   -0.2410    4.5280 h1        1 MOL      0.084858
    168 H76         5.5670    0.0100    1.5920 hn        1 MOL     -0.003978
    169 Ca1        -2.2710    0.0020   -0.3760 Ca        1 MOL      1.743972
    170 O24        -3.9910   -0.9860    1.4450 oh        1 MOL     -1.081306
    171 H77        -4.8010   -0.8720    1.9400 ho        1 MOL      0.478158
    172 H78        -3.3370   -1.2280    2.0980 ho        1 MOL      0.478158
@<TRIPOS>BOND
     1    1    2 1   
     2    1    4 1   
     3    1    5 1   
     4    1    6 1   
     5    2    3 2   
     6    2    7 1   
     7    7    8 1   
     8    7   15 1   
     9    8    9 1   
    10    8   11 1   
    11    8   16 1   
    12    9   10 2   
    13    9   19 1   
    14   11   12 1   
    15   11   17 1   
    16   11   18 1   
    17   12   13 1   
    18   12   14 1   
    19   19   20 1   
    20   19   24 1   
    21   20   21 1   
    22   20   23 1   
    23   20   25 1   
    24   21   22 2   
    25   21   29 1   
    26   23   26 1   
    27   23   27 1   
    28   23   28 1   
    29   29   30 1   
    30   29   37 1   
    31   30   31 1   
    32   30   33 1   
    33   30   38 1   
    34   31   32 2   
    35   31   41 1   
    36   33   34 1   
    37   33   39 1   
    38   33   40 1   
    39   34   35 1   
    40   34   36 1   
    41   41   42 1   
    42   41   45 1   
    43   42   43 1   
    44   42   46 1   
    45   42   47 1   
    46   43   44 2   
    47   43   48 1   
    48   48   49 1   
    49   48   56 1   
    50   49   50 1   
    51   49   52 1   
    52   49   57 1   
    53   50   51 2   
    54   50   62 1   
    55   52   53 1   
    56   52   58 1   
    57   52   59 1   
    58   53   54 1   
    59   53   55 2   
    60   54   60 1   
    61   54   61 1   
    62   62   63 1   
    63   62   66 1   
    64   63   64 1   
    65   63   67 1   
    66   63   68 1   
    67   64   65 2   
    68   64   69 1   
    69   69   70 1   
    70   69   76 1   
    71   70   71 1   
    72   70   73 1   
    73   70   77 1   
    74   71   72 2   
    75   71   83 1   
    76   73   74 1   
    77   73   75 1   
    78   73   78 1   
    79   74   80 1   
    80   74   81 1   
    81   74   82 1   
    82   75   79 1   
    83   83   84 1   
    84   83   91 1   
    85   84   85 1   
    86   84   87 1   
    87   84   92 1   
    88   85   86 2   
    89   85  102 1   
    90   87   88 1   
    91   87   89 1   
    92   87   93 1   
    93   88   90 1   
    94   88   94 1   
    95   88   95 1   
    96   89   96 1   
    97   89   97 1   
    98   89   98 1   
    99   90   99 1   
   100   90  100 1   
   101   90  101 1   
   102  102  103 1   
   103  102  110 1   
   104  103  104 1   
   105  103  106 1   
   106  103  111 1   
   107  104  105 2   
   108  104  114 1   
   109  106  107 1   
   110  106  112 1   
   111  106  113 1   
   112  107  108 1   
   113  107  109 1   
   114  114  115 1   
   115  114  125 1   
   116  115  116 1   
   117  115  118 1   
   118  115  126 1   
   119  116  117 2   
   120  116  134 1   
   121  118  119 1   
   122  118  127 1   
   123  118  128 1   
   124  119  120 ar  
   125  119  121 ar  
   126  120  122 ar  
   127  120  129 1   
   128  121  123 ar  
   129  121  130 1   
   130  122  124 ar  
   131  122  131 1   
   132  123  124 ar  
   133  123  132 1   
   134  124  133 1   
   135  134  135 1   
   136  134  140 1   
   137  135  136 1   
   138  135  138 1   
   139  135  141 1   
   140  136  137 2   
   141  136  148 1   
   142  138  139 1   
   143  138  142 1   
   144  138  143 1   
   145  139  140 1   
   146  139  144 1   
   147  139  145 1   
   148  140  146 1   
   149  140  147 1   
   150  148  149 1   
   151  148  157 1   
   152  149  150 1   
   153  149  152 1   
   154  149  158 1   
   155  150  151 2   
   156  150  163 1   
   157  152  153 1   
   158  152  159 1   
   159  152  160 1   
   160  153  154 1   
   161  153  161 1   
   162  153  162 1   
   163  154  155 1   
   164  154  156 1   
   165  163  164 1   
   166  163  168 1   
   167  164  165 1   
   168  164  166 1   
   169  164  167 1   
   170  170  171 1   
   171  170  172 1   
@<TRIPOS>SUBSTRUCTURE
     1 MOL         1 TEMP              0 ****  ****    0 ROOT
