@<TRIPOS>MOLECULE
MOL
  200   190     1     0     0
SMALL
resp


@<TRIPOS>ATOM
      1 C1          6.6710    0.5350   -2.9400 c3        1 MOL     -0.409639
      2 C2          5.8090    0.8430   -1.7250 c         1 MOL      0.715836
      3 O1          6.2050    1.6160   -0.8170 o         1 MOL     -0.585771
      4 H1          6.6660    1.3910   -3.6140 hc        1 MOL      0.109463
      5 H2          7.6920    0.3320   -2.6190 hc        1 MOL      0.109463
      6 H3          6.2710   -0.3370   -3.4580 hc        1 MOL      0.109463
      7 N1          4.6590    0.1890   -1.5300 n         1 MOL     -0.620259
      8 C3          3.7230    0.4420   -0.3540 c3        1 MOL      0.035077
      9 C4          4.3440   -0.0370    0.9960 c         1 MOL      0.473891
     10 O2          4.2920    0.6550    2.0050 o         1 MOL     -0.489613
     11 C5          2.2680   -0.1160   -0.6230 c3        1 MOL     -0.112536
     12 C6          2.1180   -1.6230   -0.9660 c         1 MOL      0.589505
     13 O3          3.1220   -2.3490   -0.7430 o         1 MOL     -0.539644
     14 O4          1.0270   -2.0820   -1.4410 o         1 MOL     -0.539644
     15 H4          4.4220   -0.4530   -2.2660 hn        1 MOL      0.323381
     16 H5          3.5460    1.5170   -0.3100 h1        1 MOL      0.122034
     17 H6          1.8670    0.5940   -1.3540 hc        1 MOL      0.067049
     18 H7          1.6190   -0.0060    0.2530 hc        1 MOL      0.067049
     19 N2          4.8750   -1.3040    1.0600 n         1 MOL     -0.275312
     20 C7          5.5800   -1.7590    2.2810 c3        1 MOL     -0.043386
     21 C8          4.6840   -1.9290    3.4860 c         1 MOL      0.555519
     22 O5          3.8010   -2.6830    3.4570 o         1 MOL     -0.534225
     23 C9          6.2930   -3.0280    1.9660 c3        1 MOL     -0.025526
     24 C10         6.9750   -3.1290    0.5870 c3        1 MOL     -0.006203
     25 C11         7.8640   -4.3630    0.6230 c3        1 MOL     -0.138546
     26 C12         7.2590   -5.7430    0.9880 c3        1 MOL      0.101513
     27 N3          6.3600   -6.3160   -0.1060 n4        1 MOL     -0.336448
     28 H8          4.6710   -1.9930    0.3640 hn        1 MOL      0.224307
     29 H9          6.2680   -1.0070    2.6620 h1        1 MOL      0.091111
     30 H10         5.6320   -3.8940    2.0460 hc        1 MOL      0.009566
     31 H11         7.0740   -3.1200    2.7200 hc        1 MOL      0.009566
     32 H12         7.5000   -2.2260    0.2790 hc        1 MOL      0.032079
     33 H13         6.2830   -3.2550   -0.2410 hc        1 MOL      0.032079
     34 H14         8.6570   -4.1250    1.3340 hc        1 MOL      0.055130
     35 H15         8.4740   -4.4560   -0.2830 hc        1 MOL      0.055130
     36 H16         6.6420   -5.6250    1.8780 hx        1 MOL      0.063440
     37 H17         8.0640   -6.4330    1.2620 hx        1 MOL      0.063440
     38 H18         6.8590   -6.3380   -0.9900 hn        1 MOL      0.294947
     39 H19         6.1700   -7.2820    0.1390 hn        1 MOL      0.294947
     40 H20         5.4780   -5.8350   -0.1010 hn        1 MOL      0.294947
     41 N4          4.7580   -1.1170    4.5540 n         1 MOL     -0.322267
     42 C13         3.8590   -0.9270    5.6740 c3        1 MOL     -0.094271
     43 C14         2.6810    0.0540    5.4620 c         1 MOL      0.531047
     44 O6          1.8550    0.2300    6.3190 o         1 MOL     -0.562402
     45 C15         4.6980   -0.4740    6.9380 c3        1 MOL     -0.213214
     46 C16         5.7740    0.5950    6.8300 c         1 MOL      0.652379
     47 O7          6.3790    0.9780    7.9070 o         1 MOL     -0.544399
     48 O8          6.0590    1.1200    5.6970 o         1 MOL     -0.544399
     49 H21         5.5470   -0.4860    4.5500 hn        1 MOL      0.189233
     50 H22         3.4870   -1.9130    5.9370 h1        1 MOL      0.118113
     51 H23         5.2330   -1.3040    7.3870 hc        1 MOL      0.093072
     52 H24         4.0140   -0.1620    7.7150 hc        1 MOL      0.093072
     53 N5          2.6060    0.7610    4.3720 n         1 MOL     -0.248008
     54 C17         1.8120    2.0220    4.1130 c3        1 MOL      0.118816
     55 C18         1.0260    1.8350    2.7640 c         1 MOL      0.440478
     56 O9          0.0930    1.0470    2.7150 o         1 MOL     -0.516818
     57 H25         3.3410    0.4940    3.7230 hn        1 MOL      0.202070
     58 H26         2.5730    2.7990    4.0190 h1        1 MOL      0.019224
     59 H27         1.0970    2.1820    4.9230 h1        1 MOL      0.019224
     60 N6          1.2390    2.6350    1.7190 n         1 MOL     -0.305059
     61 C19         2.1740    3.8380    1.6480 c3        1 MOL      0.164184
     62 C20         2.5770    4.0630    0.1400 c         1 MOL      0.479240
     63 O10         1.7300    3.9770   -0.7500 o         1 MOL     -0.550698
     64 C21         1.3970    4.9970    2.2730 c3        1 MOL     -0.382413
     65 C22         2.1480    6.2950    2.0010 c         1 MOL      0.626473
     66 N7          3.3440    6.4950    2.5560 n         1 MOL     -0.746634
     67 O11         1.8260    7.0840    1.1240 o         1 MOL     -0.525226
     68 H28         0.7080    2.3200    0.9120 hn        1 MOL      0.230681
     69 H29         3.1010    3.5750    2.1510 h1        1 MOL      0.046878
     70 H30         1.4110    4.7430    3.3320 hc        1 MOL      0.121910
     71 H31         0.3970    5.0980    1.8590 hc        1 MOL      0.121910
     72 H32         3.6510    5.9530    3.3520 hn        1 MOL      0.347873
     73 H33         3.9450    7.2690    2.3020 hn        1 MOL      0.347873
     74 N8          3.8450    4.0400   -0.2560 n         1 MOL     -0.230944
     75 C23         5.0870    4.1520    0.5240 c3        1 MOL     -0.163643
     76 C24         6.2240    4.6380   -0.4000 c         1 MOL      0.680137
     77 O12         6.0100    5.2760   -1.4810 o         1 MOL     -0.549764
     78 H34         3.9770    4.2240   -1.2340 hn        1 MOL      0.234857
     79 H35         5.2940    3.2130    1.0210 h1        1 MOL      0.047936
     80 H36         4.9150    4.9440    1.2520 h1        1 MOL      0.047936
     81 N9          7.4500    4.1340   -0.1060 n         1 MOL     -0.593605
     82 C25         8.6250    4.3930   -0.9070 c3        1 MOL      0.146861
     83 C26         9.4960    3.1530   -1.1100 c         1 MOL      0.652179
     84 O13         9.4590    2.2840   -0.2660 o         1 MOL     -0.508027
     85 C27         9.3850    5.5810   -0.3090 c3        1 MOL     -0.210881
     86 C28        10.5510    6.1460   -1.0280 ca        1 MOL      0.091977
     87 C29        11.8720    5.9250   -0.5710 ca        1 MOL     -0.141763
     88 C30        10.3310    6.8510   -2.2380 ca        1 MOL     -0.141763
     89 C31        13.0040    6.4460   -1.2580 ca        1 MOL     -0.264847
     90 C32        11.4400    7.4190   -2.8840 ca        1 MOL     -0.264847
     91 C33        12.7580    7.2470   -2.3560 ca        1 MOL      0.320817
     92 O14        13.8740    7.6950   -3.1210 oh        1 MOL     -0.520880
     93 H37         7.5670    3.5630    0.7170 hn        1 MOL      0.339637
     94 H38         8.2690    4.6280   -1.9100 h1        1 MOL      0.043447
     95 H39         9.7290    5.1630    0.6370 hc        1 MOL      0.078203
     96 H40         8.6060    6.2920   -0.0550 hc        1 MOL      0.078203
     97 H41        12.0150    5.2680    0.2710 ha        1 MOL      0.136699
     98 H42         9.3130    6.9740   -2.5950 ha        1 MOL      0.136699
     99 H43        14.0140    6.1940   -0.9930 ha        1 MOL      0.154374
    100 H44        11.2730    7.8710   -3.8520 ha        1 MOL      0.154374
    101 H45        13.7090    8.2560   -3.8770 ho        1 MOL      0.363007
    102 N10        10.3520    3.1560   -2.1980 n         1 MOL     -0.521928
    103 C34        11.2470    2.0790   -2.6560 c3        1 MOL     -0.099811
    104 C35        12.3270    1.7910   -1.6320 c         1 MOL      0.329217
    105 O15        12.6620    2.6570   -0.8140 o         1 MOL     -0.411431
    106 C36        11.8640    2.4610   -4.0360 c3        1 MOL      0.244723
    107 C37        12.8830    3.5900   -4.0970 c3        1 MOL      0.133424
    108 C38        12.3130    1.1450   -4.6750 c3        1 MOL     -0.217916
    109 C39        13.2850    3.9930   -5.5530 c3        1 MOL     -0.392528
    110 H46        10.3710    3.9690   -2.8040 hn        1 MOL      0.237383
    111 H47        10.5870    1.2360   -2.8530 h1        1 MOL      0.093920
    112 H48        11.0400    2.8750   -4.6260 hc        1 MOL     -0.008576
    113 H49        13.7260    3.1330   -3.5830 hc        1 MOL     -0.000619
    114 H50        12.4780    4.4620   -3.5790 hc        1 MOL     -0.000619
    115 H51        12.2890    1.2560   -5.7610 hc        1 MOL      0.047138
    116 H52        13.3730    0.9980   -4.4730 hc        1 MOL      0.047138
    117 H53        11.7350    0.2820   -4.3490 hc        1 MOL      0.047138
    118 H54        13.8500    3.2220   -6.0730 hc        1 MOL      0.096019
    119 H55        12.3990    4.3700   -6.0690 hc        1 MOL      0.096019
    120 H56        14.0390    4.7710   -5.5070 hc        1 MOL      0.096019
    121 N11        12.8420    0.5220   -1.5860 n         1 MOL     -0.112728
    122 C40        13.7650   -0.1060   -0.6700 c3        1 MOL      0.026637
    123 C41        12.9560   -1.2270    0.0440 c         1 MOL      0.378195
    124 O16        12.3580   -2.1230   -0.5480 o         1 MOL     -0.530518
    125 C42        14.9540   -0.7010   -1.4080 c3        1 MOL      0.196233
    126 O17        15.6520    0.2620   -2.1710 oh        1 MOL     -0.622086
    127 H57        12.6140   -0.0760   -2.3770 hn        1 MOL      0.175004
    128 H58        14.1470    0.6130    0.0490 h1        1 MOL      0.058262
    129 H59        14.6480   -1.4460   -2.1350 h1        1 MOL      0.019513
    130 H60        15.6790   -1.1400   -0.7290 h1        1 MOL      0.019513
    131 H61        16.5670    0.0050   -2.3230 ho        1 MOL      0.407535
    132 N12        12.7930   -1.1800    1.3300 n         1 MOL     -0.393338
    133 C43        11.9940   -2.0370    2.1720 c3        1 MOL      0.280307
    134 C44        12.3040   -3.5620    1.9380 c         1 MOL      0.426205
    135 O18        11.3590   -4.3450    2.0150 o         1 MOL     -0.470289
    136 C45        10.5110   -1.6920    2.2040 c3        1 MOL     -0.376120
    137 H62        13.1290   -0.3580    1.7900 hn        1 MOL      0.274672
    138 H63        12.4980   -1.8530    3.1200 h1        1 MOL      0.005134
    139 H64         9.9670   -2.3610    2.8700 hc        1 MOL      0.127950
    140 H65        10.3050   -0.6450    2.4570 hc        1 MOL      0.127950
    141 H66        10.0800   -1.8140    1.2070 hc        1 MOL      0.127950
    142 N13        13.5630   -3.9030    1.5630 n         1 MOL     -0.448389
    143 C46        14.0530   -5.2550    1.2970 c3        1 MOL      0.304625
    144 C47        13.4380   -5.9630    0.0660 c         1 MOL      0.366540
    145 O19        13.5500   -7.2220   -0.0480 o         1 MOL     -0.510174
    146 C48        14.2300   -6.1060    2.5210 c3        1 MOL     -0.292340
    147 H67        14.2320   -3.1480    1.4950 hn        1 MOL      0.220706
    148 H68        15.0310   -5.1250    0.8470 h1        1 MOL      0.030953
    149 H69        13.6250   -5.7640    3.3540 hc        1 MOL      0.078276
    150 H70        14.1010   -7.1590    2.2720 hc        1 MOL      0.078276
    151 H71        15.2650   -6.1190    2.8880 hc        1 MOL      0.078276
    152 N14        12.8630   -5.2550   -0.9190 n         1 MOL     -0.136436
    153 C49        12.1280   -5.7210   -2.0910 c3        1 MOL     -0.251448
    154 C50        12.9620   -5.7020   -3.3890 c         1 MOL      0.532707
    155 O20        12.9360   -6.6010   -4.2640 o         1 MOL     -0.517820
    156 C51        10.9430   -4.7670   -2.3360 c3        1 MOL      0.258515
    157 C52         9.8670   -5.3030   -3.3490 c3        1 MOL     -0.306854
    158 C53         9.0310   -6.4240   -2.7770 c         1 MOL      0.761301
    159 O21         9.5040   -7.5760   -2.8140 o         1 MOL     -0.639682
    160 O22         7.9030   -6.1840   -2.3910 o         1 MOL     -0.639682
    161 H72        12.7250   -4.2930   -0.7060 hn        1 MOL      0.079727
    162 H73        11.7950   -6.7380   -1.8850 h1        1 MOL      0.194646
    163 H74        11.2930   -3.8230   -2.7600 hc        1 MOL     -0.012294
    164 H75        10.5710   -4.5110   -1.3480 hc        1 MOL     -0.012294
    165 H76        10.3760   -5.7370   -4.2070 hc        1 MOL      0.057649
    166 H77         9.2340   -4.4610   -3.6340 hc        1 MOL      0.057649
    167 N15        13.8290   -4.7040   -3.5180 n         1 MOL     -0.255430
    168 C54        14.8420   -4.6060   -4.6320 c3        1 MOL     -0.228833
    169 H78        14.3260   -4.5880   -5.5920 h1        1 MOL      0.109095
    170 H79        15.4230   -3.6920   -4.5150 h1        1 MOL      0.109095
    171 H80        15.5090   -5.4680   -4.5950 h1        1 MOL      0.109095
    172 H81        13.9850   -4.2930   -2.6130 hn        1 MOL      0.165173
    173 Ca1       -51.0780   -0.4820   -0.8020 Ca        1 MOL      1.736993
    174 O23       -50.5810   -1.2460   -3.5080 oh        1 MOL     -0.797003
    175 H82       -51.1290   -1.7090   -4.1350 ho        1 MOL      0.353734
    176 H83       -49.7030   -1.6200   -3.6330 ho        1 MOL      0.353734
    177 O24       -49.7270   -0.9150    1.7950 oh        1 MOL     -0.797003
    178 O25       -52.7720   -1.7150    1.0190 oh        1 MOL     -0.797003
    179 H84       -50.1160   -1.5790    2.3650 ho        1 MOL      0.353734
    180 H85       -53.4190   -2.4050    0.8490 ho        1 MOL      0.353734
    181 H86       -49.4970   -0.1950    2.3910 ho        1 MOL      0.353734
    182 H87       -53.1260   -1.2330    1.7670 ho        1 MOL      0.353734
    183 O26       -52.5020    1.1750    0.7790 oh        1 MOL     -0.797003
    184 H88       -52.6490    1.1390    1.7160 ho        1 MOL      0.353734
    185 H89       -52.4290    2.1150    0.5830 ho        1 MOL      0.353734
    186 O27       -50.7720   -3.1260   -0.6420 oh        1 MOL     -0.797003
    187 H90       -49.9680   -3.5790   -0.3870 ho        1 MOL      0.353734
    188 H91       -51.4740   -3.7680   -0.5100 ho        1 MOL      0.353734
    189 O28       -50.9660    1.7120   -2.3550 oh        1 MOL     -0.797003
    190 H92       -50.7560    1.3330   -3.2090 ho        1 MOL      0.353734
    191 H93       -50.6730    2.6240   -2.4170 ho        1 MOL      0.353734
    192 O29       -53.3780   -0.5550   -2.1480 oh        1 MOL     -0.797003
    193 H94       -53.4720   -1.2810   -2.7590 ho        1 MOL      0.353734
    194 H95       -53.7430    0.2050   -2.6140 ho        1 MOL      0.353734
    195 O30       -49.3930    1.6460    0.1150 oh        1 MOL     -0.797003
    196 H96       -49.5680    1.4300    1.0320 ho        1 MOL      0.353734
    197 H97       -48.7000    2.2970    0.1550 ho        1 MOL      0.353734
    198 O31       -48.3820   -0.9360   -1.2370 oh        1 MOL     -0.797003
    199 H98       -47.8020   -1.6650   -1.4350 ho        1 MOL      0.353734
    200 H99       -47.8130   -0.1620   -1.2300 ho        1 MOL      0.353734
@<TRIPOS>BOND
     1    1    2 1   
     2    1    4 1   
     3    1    5 1   
     4    1    6 1   
     5    2    3 2   
     6    2    7 1   
     7    7    8 1   
     8    7   15 1   
     9    8    9 1   
    10    8   11 1   
    11    8   16 1   
    12    9   10 2   
    13    9   19 1   
    14   11   12 1   
    15   11   17 1   
    16   11   18 1   
    17   12   13 1   
    18   12   14 1   
    19   19   20 1   
    20   19   28 1   
    21   20   21 1   
    22   20   23 1   
    23   20   29 1   
    24   21   22 2   
    25   21   41 1   
    26   23   24 1   
    27   23   30 1   
    28   23   31 1   
    29   24   25 1   
    30   24   32 1   
    31   24   33 1   
    32   25   26 1   
    33   25   34 1   
    34   25   35 1   
    35   26   27 1   
    36   26   36 1   
    37   26   37 1   
    38   27   38 1   
    39   27   39 1   
    40   27   40 1   
    41   41   42 1   
    42   41   49 1   
    43   42   43 1   
    44   42   45 1   
    45   42   50 1   
    46   43   44 2   
    47   43   53 1   
    48   45   46 1   
    49   45   51 1   
    50   45   52 1   
    51   46   47 1   
    52   46   48 1   
    53   53   54 1   
    54   53   57 1   
    55   54   55 1   
    56   54   58 1   
    57   54   59 1   
    58   55   56 2   
    59   55   60 1   
    60   60   61 1   
    61   60   68 1   
    62   61   62 1   
    63   61   64 1   
    64   61   69 1   
    65   62   63 2   
    66   62   74 1   
    67   64   65 1   
    68   64   70 1   
    69   64   71 1   
    70   65   66 1   
    71   65   67 2   
    72   66   72 1   
    73   66   73 1   
    74   74   75 1   
    75   74   78 1   
    76   75   76 1   
    77   75   79 1   
    78   75   80 1   
    79   76   77 2   
    80   76   81 1   
    81   81   82 1   
    82   81   93 1   
    83   82   83 1   
    84   82   85 1   
    85   82   94 1   
    86   83   84 2   
    87   83  102 1   
    88   85   86 1   
    89   85   95 1   
    90   85   96 1   
    91   86   87 ar  
    92   86   88 ar  
    93   87   89 ar  
    94   87   97 1   
    95   88   90 ar  
    96   88   98 1   
    97   89   91 ar  
    98   89   99 1   
    99   90   91 ar  
   100   90  100 1   
   101   91   92 1   
   102   92  101 1   
   103  102  103 1   
   104  102  110 1   
   105  103  104 1   
   106  103  106 1   
   107  103  111 1   
   108  104  105 2   
   109  104  121 1   
   110  106  107 1   
   111  106  108 1   
   112  106  112 1   
   113  107  109 1   
   114  107  113 1   
   115  107  114 1   
   116  108  115 1   
   117  108  116 1   
   118  108  117 1   
   119  109  118 1   
   120  109  119 1   
   121  109  120 1   
   122  121  122 1   
   123  121  127 1   
   124  122  123 1   
   125  122  125 1   
   126  122  128 1   
   127  123  124 2   
   128  123  132 1   
   129  125  126 1   
   130  125  129 1   
   131  125  130 1   
   132  126  131 1   
   133  132  133 1   
   134  132  137 1   
   135  133  134 1   
   136  133  136 1   
   137  133  138 1   
   138  134  135 2   
   139  134  142 1   
   140  136  139 1   
   141  136  140 1   
   142  136  141 1   
   143  142  143 1   
   144  142  147 1   
   145  143  144 1   
   146  143  146 1   
   147  143  148 1   
   148  144  145 2   
   149  144  152 1   
   150  146  149 1   
   151  146  150 1   
   152  146  151 1   
   153  152  153 1   
   154  152  161 1   
   155  153  154 1   
   156  153  156 1   
   157  153  162 1   
   158  154  155 2   
   159  154  167 1   
   160  156  157 1   
   161  156  163 1   
   162  156  164 1   
   163  157  158 1   
   164  157  165 1   
   165  157  166 1   
   166  158  159 1   
   167  158  160 1   
   168  167  168 1   
   169  167  172 1   
   170  168  169 1   
   171  168  170 1   
   172  168  171 1   
   173  174  175 1   
   174  174  176 1   
   175  177  179 1   
   176  177  181 1   
   177  178  180 1   
   178  178  182 1   
   179  183  184 1   
   180  183  185 1   
   181  186  187 1   
   182  186  188 1   
   183  189  190 1   
   184  189  191 1   
   185  192  193 1   
   186  192  194 1   
   187  195  196 1   
   188  195  197 1   
   189  198  199 1   
   190  198  200 1   
@<TRIPOS>SUBSTRUCTURE
     1 MOL         1 TEMP              0 ****  ****    0 ROOT
